6
formamide geometry, unoptimized 
  C        14.620000       14.890000       18.870001
  H        14.160000       14.290000       18.059999
  N        15.320000       15.880000       18.280001
  H        15.950000       16.490000       18.790001
  H        15.250000       16.030001       17.280001
  O        14.450000       14.590000       20.049999