6

H         0.9256102457    0.0000000000   -0.2481132352
H        -0.0000930743    0.0000000000    0.9582869092
O        -0.0005900753    0.0000000000   -0.0004526740
H         0.9256102457    2.0000000000   -0.2481132352
H        -0.0000930743    2.0000000000    0.9582869092
O        -0.0005900753    2.0000000000   -0.0004526740
   6

H  -5.26323559596e-01 -7.69239546413e-01 -2.93622584729e-02
H  -5.26323559596e-01  7.69239546413e-01 -2.93622584729e-02
O   6.63263344957e-02  0.00000000000e+00  3.70017822976e-03
H   4.80887496578e-01 -5.88917333434e-17  3.18418752814e+00
H   5.71563626083e-01 -6.99963565191e-17  1.64838293165e+00
O  -6.63139849331e-02  8.12112093870e-18  2.38130083621e+00
   6

H   3.13374453735e-01 -3.84573560448e-01  7.89625062752e-01
H  -8.40524884286e-01  3.84573560448e-01  1.23406672734e-01
O   3.32152676322e-02  0.00000000000e+00 -5.75292965600e-02
H  -8.05161555394e-01 -4.64921862500e-01  3.51155930225e+00
H   3.48650589329e-01  2.01355121880e-01  4.28078646886e+00
O   2.87643394298e-02  1.66070998358e-02  3.38212220623e+00
