6
1
C   -0.31403678  -0.29973543  -0.18965588
H   -0.77392877  -0.98433000  -0.87968086
N    0.70768013   0.60958665  -0.81497545
H    0.79347583   1.36242792  -0.07414546
H    0.19875235   1.15610208  -1.62884986
O   -0.39768040  -0.40545049   1.01848455
6
2
C   -0.24690734  -0.36784816  -0.17552340
H   -1.00145527  -0.84732565  -0.78412232
N    0.64628408   0.61869054  -0.79920903
H    1.01083961   1.32579724  -0.02884757
H    0.37999413   1.23865813  -1.61509817
O   -0.40510678  -0.37383980   0.98436654
6
3
C   -0.27878715  -0.26128017  -0.19692035
H   -0.81345920  -0.97080770  -0.84137706
N    0.65268851   0.58184400  -0.75782885
H    0.90921824   1.41428764  -0.18349429
H    0.26720571   0.98713126  -1.67955354
O   -0.38511129  -0.40350561   0.98159352
6
4
C   -0.27820726  -0.25944682  -0.18329919
H   -0.79798240  -0.89016676  -0.96273372
N    0.66126564   0.59668766  -0.79618366
H    0.83100809   1.42298738  -0.27029539
H    0.42741441   0.98937866  -1.64695524
O   -0.39920727  -0.42365051   1.01601531
6
5
C   -0.28828335  -0.28057883  -0.19670609
H   -0.67994869  -1.07041460  -0.84769638
N    0.65146050   0.64380360  -0.81422256
H    1.26041062   1.26535103  -0.17018679
H    0.37820400   0.92392050  -1.66081063
O   -0.41445131  -0.42363472   1.02921839
6
6
C   -0.25466114  -0.30452680  -0.20571567
H   -0.90028215  -1.01107371  -0.90082637
N    0.68055972   0.62287161  -0.81023952
H    0.97532804   1.21744543  -0.04091433
H    0.08649094   1.04542100  -1.52966048
O   -0.41492792  -0.39570027   1.01938598
6
7
C   -0.25645374  -0.29721203  -0.17141346
H   -0.64353104  -1.18201997  -0.85220292
N    0.63688088   0.59264854  -0.83087783
H    1.10664704   1.12018775   0.03816519
H    0.29074233   1.43599298  -1.40198470
O   -0.41262696  -0.38241314   0.99567058
6
8
C   -0.27117060  -0.32834301  -0.17357001
H   -0.63106837  -1.03798386  -0.83505780
N    0.60933661   0.61492808  -0.78592757
H    1.28262004   1.09370189  -0.06033343
H    0.42770689   1.29566510  -1.71259307
O   -0.39800175  -0.37715562   0.98265894
6
9
C   -0.24828375  -0.28660078  -0.21835155
H   -0.59075528  -0.89006412  -1.00289975
N    0.61585822   0.59008807  -0.76340247
H    1.24262777   1.21347061  -0.14664255
H    0.13074078   1.03559668  -1.62978048
O   -0.40218963  -0.38722378   1.00731390
6
10
C   -0.23443169  -0.29044750  -0.17116430
H   -1.04556898  -0.79359153  -0.73404525
N    0.70916158   0.65231422  -0.84168526
H    0.97665749   1.52297980  -0.35401380
H    0.22305718   0.93151842  -1.80385496
O   -0.45473088  -0.45781636   1.04747355
6
11
C   -0.24824789  -0.31860908  -0.12448555
H   -0.74668013  -0.86269065  -1.01677010
N    0.64465186   0.63896721  -0.82413846
H    1.24571552   1.23710310  -0.14809713
H    0.26216487   1.00660624  -1.67112533
O   -0.42610720  -0.40739810   0.99362612
6
12
C   -0.21577596  -0.28108673  -0.18270809
H   -0.85176032  -0.78994579  -1.01208666
N    0.61576449   0.56937116  -0.76439350
H    1.08858818   1.50428141  -0.23323127
H    0.22392295   1.00631492  -1.56264136
O   -0.40623780  -0.39601105   0.98322142
6
13
C   -0.37405899  -0.25160033  -0.22593579
H   -0.67029133  -0.93479708  -1.14662127
N    0.72635072   0.61062441  -0.78637653
H    0.78566640   1.63445915  -0.27970205
H    0.21812642   0.73439503  -1.70949844
O   -0.37625085  -0.43621615   1.05551358
6
14
C   -0.27992850  -0.28841356  -0.22663384
H   -0.71643036  -0.91982684  -1.03830519
N    0.63846620   0.61414882  -0.78084597
H    1.04675659   1.23358208  -0.15455145
H    0.37663980   0.95385427  -1.67901418
O   -0.39348473  -0.40117602   1.03461525
6
15
C   -0.28679687  -0.24921767  -0.20496448
H   -1.10753102  -0.73260101  -0.69503817
N    0.68691340   0.59251026  -0.76154570
H    0.54149624   1.70794035  -0.25285852
H    0.49412969   0.71679180  -1.86735938
O   -0.38169795  -0.43836786   0.99781879
6
16
C   -0.23643104  -0.22965187  -0.18786581
H   -0.69429466  -1.06266568  -0.87139201
N    0.64648602   0.58455625  -0.79768861
H    1.06285027   1.26134004  -0.13035348
H    0.09374179   1.01834740  -1.53988682
O   -0.41771110  -0.41614326   0.99945004
6
17
C   -0.17700850  -0.29094686  -0.12423310
H   -0.80889769  -0.84141243  -0.76560912
N    0.72511999   0.61287021  -0.91357991
H    0.97120198   1.32001252  -0.09379008
H   -0.29991146   1.33599807  -1.29580149
O   -0.49334885  -0.43253826   1.02877604
6
18
C   -0.25048431  -0.23423959  -0.20220444
H   -0.70623704  -0.91880750  -0.89203611
N    0.63287600   0.60436371  -0.78357460
H    1.19354333   1.47125344  -0.41399104
H    0.35402231   0.85172671  -1.68014696
O   -0.41916104  -0.44185723   1.02587932
6
19
C   -0.23351383  -0.33564362  -0.17199976
H   -1.10367241  -0.62478322  -0.85624504
N    0.61811045   0.63328391  -0.77662525
H    0.98519055   1.41583535  -0.11282666
H    0.66249467   0.85195175  -1.99592280
O   -0.40028021  -0.40614941   0.99578999
6
20
C   -0.18216854  -0.16466409  -0.12010653
H   -0.80159130  -0.68478735  -0.61952517
N    0.73030066   0.62133211  -0.90693163
H    0.76706758   1.53048625  -0.48265150
H    0.06686860   0.87805158  -1.77557599
O   -0.50476882  -0.52899188   1.06537175
6
21
C   -0.19093404  -0.33949889  -0.20697155
H   -0.75607210  -1.20284430  -0.71360021
N    0.60061590   0.64031006  -0.78818644
H    1.77073595   1.07606105  -0.36566142
H    0.11147920   1.39395731  -1.51570794
O   -0.45354745  -0.38569172   1.00889323
6
22
C   -0.39771765  -0.27021140  -0.16560189
H   -1.05394785  -0.80170328  -0.93907179
N    0.66568601   0.58695551  -0.69978181
H    0.44965454   1.82574754  -0.29742605
H    0.93489468   0.57593650  -1.97952652
O   -0.30524260  -0.41200455   0.93948759
6
23
C   -0.28941042  -0.18956297  -0.07716240
H   -0.67342413  -0.80085134  -0.98704307
N    0.68363809   0.63936945  -0.85156774
H    0.92864230   1.50847176  -0.32984022
H    0.53999508   0.63707593  -2.12602932
O   -0.43152113  -0.50230549   1.02034707
6
24
C   -0.23474669  -0.32184950  -0.18583042
H   -0.41823475  -1.28733610  -0.96074529
N    0.66827899   0.59853960  -0.87224555
H    1.42077027   1.06078295  -0.17686852
H   -0.14718367   1.85093673  -1.18886806
O   -0.46277980  -0.38483123   1.04967769
6
25
C   -0.26230164  -0.26391134  -0.16595687
H   -1.13169205  -0.38571807  -1.00963136
N    0.69084246   0.62227830  -0.79692519
H    0.56514113   1.78794984  -0.34282956
H    0.53002046   0.44941992  -1.96563426
O   -0.40578454  -0.46349591   1.03121269
6
26
C   -0.32077254  -0.27723467  -0.15938564
H   -1.07913344  -0.81239378  -0.76456325
N    0.71490859   0.64021048  -0.75133152
H    0.79376118   1.66229051  -0.53593029
H    0.33482716   0.60264284  -1.88832526
O   -0.38838429  -0.44404681   0.97822602
6
27
C   -0.31752536  -0.30548796  -0.21354644
H   -0.95882557  -0.69395641  -1.00078082
N    0.67263122   0.62016169  -0.78823979
H    0.55604131   1.43911802  -0.17985633
H    0.75221832   0.89880395  -1.88528669
O   -0.37268368  -0.41733895   1.04345619
6
28
C   -0.19625270  -0.17113180  -0.11220254
H   -0.60221089  -0.80799450  -0.96917420
N    0.57103999   0.56894920  -0.77499643
H    1.20483203   1.42516058  -0.53918465
H    0.57279738   0.87629002  -1.89616365
O   -0.42678801  -0.46384563   0.97723419
6
29
C   -0.27726232  -0.26012134  -0.20311820
H   -1.05117794  -0.59340066  -0.92513216
N    0.55573425   0.58707852  -0.70159211
H    0.57351387   1.35683173  -0.14779945
H    1.23469516   0.52145232  -2.00240448
O   -0.32625556  -0.39981960   0.96040600
6
30
C   -0.29296853  -0.36934844  -0.25703477
H   -0.77776404  -0.93827994  -0.96373317
N    0.61349659   0.57044666  -0.67544882
H    1.04394673   1.10241703  -0.01264484
H    0.02804646   1.09813197  -1.40147469
O   -0.33580031  -0.30184563   0.93401873
6
31
C   -0.14467800  -0.18375592  -0.19178191
H   -0.66159991  -0.96581390  -0.82772520
N    0.68695914   0.56593721  -0.89689335
H    0.73160497   1.05093894  -0.04324505
H   -0.18429170   1.35632552  -1.36703244
O   -0.48564986  -0.44835146   1.07006841
6
32
C   -0.33023583  -0.20820354  -0.12364951
H   -0.46547795  -1.00284750  -1.08233615
N    0.72153572   0.66056312  -0.88551672
H    1.22516639   1.61991938  -0.55537644
H    0.36002947   0.82093242  -1.84009200
O   -0.45448617  -0.51274644   1.08715888
6
33
C   -0.30618677  -0.34339145  -0.19154288
H   -0.57950066  -1.16074012  -0.98225349
N    0.62864589   0.61974421  -0.78325991
H    1.25706689   1.00356553  -0.00217937
H    0.28537410   1.25797401  -1.46282471
O   -0.38128075  -0.35430092   0.98367352
6
34
C   -0.40358394  -0.36372421  -0.25570807
H   -0.68778182  -1.21979570  -1.21682092
N    0.74807630   0.56191375  -0.77530222
H    0.48449958   1.25943079   0.21677728
H   -0.08288279   1.58432412  -1.34566190
O   -0.33400202  -0.32135364   1.01835355
6
35
C   -0.30242061  -0.35913009  -0.28560597
H   -0.26763193  -1.41876652  -1.06802524
N    0.56597091   0.54471005  -0.74528170
H    1.37292098   0.77148777   0.20154332
H    0.27122594   1.96363893  -1.32584752
O   -0.35522590  -0.29034540   1.00498384
6
36
C   -0.33012197  -0.26995685  -0.26111367
H   -0.87044907  -0.93791258  -0.95515262
N    0.61698873   0.59030161  -0.69158925
H    0.86874434   1.41045905  -0.13560926
H    0.62946750   0.69578181  -1.92716780
O   -0.33203576  -0.38791623   0.99153566
6
37
C   -0.23200353  -0.30017896  -0.11416524
H   -0.57744338  -1.11404556  -0.86260598
N    0.65859763   0.67766196  -0.93740438
H    1.44001197   1.08561237  -0.12375004
H    0.50483977   1.47056434  -1.80698998
O   -0.48869879  -0.45890907   1.08238862
6
38
C   -0.25184895  -0.30890200  -0.22841569
H   -1.26758676  -0.58201177  -0.90070743
N    0.64201235   0.64512844  -0.78557308
H    0.74321358   1.63938454  -0.41069819
H    0.97233990   0.70980260  -1.94493489
O   -0.40141636  -0.44440879   1.06428429
6
39
C   -0.34953991  -0.20702568  -0.10432739
H   -1.18429262  -0.32282909  -0.94063883
N    0.72385327   0.61246051  -0.79448021
H    0.14413238   2.20073748  -0.52518772
H    1.06755602   0.31698099  -2.37920655
O   -0.37327402  -0.51922443   1.01600922
6
40
C   -0.34222594  -0.26724403  -0.12827348
H   -0.58683142  -0.69990780  -1.14445407
N    0.74197759   0.64649951  -0.87756262
H    0.70441500   1.49038034  -0.40443564
H    0.45604117   1.02335882  -1.97148300
O   -0.42898391  -0.47979821   1.08631300
6
41
C   -0.27320600  -0.30710790  -0.21916849
H   -1.14656445  -0.72086250  -0.85570138
N    0.70735775   0.63127330  -0.80409043
H    0.57277858   1.45413654  -0.14404132
H    0.39520126   0.86716221  -1.81320227
O   -0.40308107  -0.42309033   1.04557840
6
42
C   -0.24950258  -0.17464202  -0.22076993
H   -0.59201591  -1.25924267  -0.83705231
N    0.59038901   0.60148697  -0.80241492
H    1.12747437   1.02097218   0.02363189
H    0.65643749   0.95435929  -1.90358640
O   -0.40476973  -0.44068929   1.03937040
6
43
C   -0.39060187  -0.40288918  -0.21826672
H   -0.99078581  -1.12754916  -0.75898441
N    0.78750661   0.69300937  -0.85563678
H    0.83798952   1.47551427  -0.30271713
H    0.37543001   1.39168757  -1.65112874
O   -0.41041504  -0.41402286   1.08373388
6
44
C   -0.28903955  -0.47031671  -0.27084814
H   -0.76663405  -0.99544872  -1.08557781
N    0.58559687   0.58682363  -0.72033417
H    1.22213930   0.98830609   0.11857094
H    0.32856357   1.65584683  -1.29964617
O   -0.34517691  -0.26475599   0.97671726
6
45
C   -0.13167903  -0.33307884  -0.17274563
H   -0.75546440  -0.41408645  -1.00377396
N    0.61291275   0.64136608  -0.87166787
H    1.29210881   1.14795488  -0.13290297
H    0.19776634   1.01729536  -1.61879620
O   -0.48411905  -0.42193186   1.06637881
6
46
C   -0.33233018  -0.21293517  -0.16680715
H   -0.93148874  -0.80854912  -0.93296730
N    0.60425897   0.60166669  -0.72489701
H    0.74454143   1.60994753  -0.17084819
H    1.05655069   0.35157065  -2.10854684
O   -0.33450162  -0.43970463   0.96219158
6
47
C   -0.21259025  -0.41904837  -0.25681633
H   -0.96670587  -0.84079063  -1.15335435
N    0.61709620   0.59157652  -0.77398517
H    1.09373543   1.10684032   0.18904887
H    0.10545276   1.46252122  -1.43427295
O   -0.39539346  -0.31241661   1.02143393
6
48
C   -0.38198825  -0.09315677  -0.21479372
H   -0.50673789  -1.02302501  -1.12603570
N    0.64400552   0.58307748  -0.69195478
H    0.90866586   1.65783806  -0.49879956
H    0.53394247   0.02637645  -2.04967194
O   -0.33618306  -0.48234732   0.99846616
6
49
C   -0.24191111  -0.27635804  -0.08190202
H   -0.66373163  -0.68404680  -1.00204458
N    0.62376296   0.59068319  -0.80455229
H    0.93360563   1.22282028  -0.03292965
H    0.36923694   1.02632368  -1.88892972
O   -0.40487630  -0.40842045   0.95006054
6
50
C   -0.25952368  -0.30177548  -0.22841758
H   -0.77334241  -0.97688009  -0.95327617
N    0.59311784   0.52340826  -0.67894541
H    0.78467254   0.99612944   0.33382974
H   -0.01377291   1.03904586  -1.41834387
O   -0.32434063  -0.29850106   0.89416629
6
51
C   -0.27318500  -0.28244082  -0.21458743
H   -0.80173440  -1.00650516  -0.84535525
N    0.67224164   0.59033037  -0.78179085
H    0.92308662   1.32266888  -0.04597717
H    0.09586307   1.09690769  -1.61516616
O   -0.39723881  -0.39393869   1.00334853
6
52
C   -0.28843930  -0.27981890  -0.18580049
H   -0.76616957  -0.93296281  -0.91428666
N    0.66003631   0.59635934  -0.80013274
H    0.79150144   1.26463025   0.02507804
H    0.38877991   1.07441208  -1.71763894
O   -0.38751922  -0.40075084   1.00414032
6
53
C   -0.36963081  -0.32952836  -0.21498266
H   -0.76256921  -0.84893287  -0.93676074
N    0.71423309   0.62330589  -0.78837025
H    0.71670636   1.43276443  -0.04091093
H    0.30962079   0.91561819  -1.66228772
O   -0.36456663  -0.39293863   1.01779945
6
54
C   -0.21029390  -0.30049474  -0.18997574
H   -0.86653022  -0.79972003  -1.02849502
N    0.60189318   0.58646412  -0.76902287
H    1.01335596   1.18808061  -0.03983905
H    0.31763722   1.03007064  -1.63360135
O   -0.39844509  -0.37737036   0.98605372
6
55
C   -0.22826153  -0.30417591  -0.18637840
H   -0.86870141  -1.06075261  -0.96372518
N    0.62099014   0.59751397  -0.79475644
H    1.09613800   1.14539785   0.12259312
H    0.25356628   1.16321198  -1.57862110
O   -0.40270694  -0.37352308   0.98810357
6
56
C   -0.26156488  -0.31779336  -0.18702228
H   -0.72697327  -0.82387933  -0.74828144
N    0.65912769   0.62530445  -0.81476224
H    1.08905334   1.29651470  -0.21138398
H    0.28304547   1.09916792  -1.57263540
O   -0.42145613  -0.40802577   1.01318283
6
57
C   -0.28492764  -0.27420910  -0.19253090
H   -0.91575597  -0.96979189  -1.04355414
N    0.66032681   0.62720627  -0.80241180
H    0.96215224   1.41869992  -0.10897405
H    0.50382792   0.87313034  -1.86476674
O   -0.39901850  -0.42670750   1.03705515
6
58
C   -0.28327868  -0.32849715  -0.19579988
H   -0.94838416  -0.99127926  -0.93403345
N    0.66794254   0.62936378  -0.78610967
H    1.05741793   1.35109522  -0.05213838
H    0.23950554   0.95216641  -1.61404322
O   -0.39419966  -0.38721418   0.99894985
6
59
C   -0.24455127  -0.28149506  -0.18903788
H   -0.90112709  -0.67230069  -0.93930224
N    0.65992601   0.62012615  -0.83996645
H    0.83131231   1.47370905  -0.09710971
H    0.50250236   0.84038404  -1.66511236
O   -0.42155413  -0.43515607   1.04740280
6
60
C   -0.27333422  -0.29916993  -0.19321538
H   -0.81585852  -0.86428990  -0.88322646
N    0.67994326   0.59887187  -0.79708182
H    0.83794586   1.35973111  -0.18242217
H    0.19234761   1.11016193  -1.56090661
O   -0.40370550  -0.40099458   1.00826122
6
61
C   -0.25944836  -0.29293311  -0.16927689
H   -0.83588347  -0.92709639  -0.82173885
N    0.66101756   0.62751131  -0.82023714
H    0.92042549   1.18835415  -0.12926885
H    0.41224645   1.09660960  -1.71730974
O   -0.41536511  -0.41514154   1.01322391
6
62
C   -0.31460112  -0.28059759  -0.17448187
H   -0.98489311  -0.82403719  -0.90359432
N    0.69029433   0.64267399  -0.78979297
H    0.85133921   1.59214296  -0.32058441
H    0.56393962   0.74491746  -2.00923099
O   -0.39546049  -0.44749163   1.02606233
6
63
C   -0.27721231  -0.23684990  -0.13844157
H   -0.84549828  -0.96837281  -0.78868152
N    0.65499030   0.61611929  -0.79811036
H    1.01994284   1.49492158  -0.17131411
H    0.46569489   0.80808575  -1.92114352
O   -0.40580007  -0.44581237   0.98412837
6
64
C   -0.27658420  -0.27476237  -0.19740417
H   -1.09155781  -0.79773907  -0.75455617
N    0.74261496   0.63685058  -0.85653733
H    0.55461295   1.57315401  -0.17313567
H    0.35783622   0.94915625  -1.81370062
O   -0.43137376  -0.46004215   1.07064398
6
65
C   -0.32805668  -0.26065657  -0.18298962
H   -0.61378699  -0.92036027  -1.00254526
N    0.69394937   0.62668522  -0.82762616
H    0.80119164   1.25929976  -0.11789963
H    0.37662954   0.90568679  -1.72194089
O   -0.39693163  -0.43151934   1.04093884
6
66
C   -0.28863655  -0.21018177  -0.15703636
H   -0.78604229  -0.96319483  -0.82332685
N    0.64496967   0.57813276  -0.76886897
H    0.83052436   1.50902359  -0.17957902
H    0.50061716   0.85199921  -1.89143704
O   -0.38244944  -0.43654176   0.97330444
6
67
C   -0.29688666  -0.29002998  -0.18776441
H   -0.88079176  -0.92432263  -0.99971859
N    0.67526636   0.60040820  -0.77596373
H    0.84000974   1.48049625  -0.31969872
H    0.38800323   1.09185669  -1.74802819
O   -0.39032320  -0.41189885   1.01347086
6
68
C   -0.28870684  -0.30404203  -0.19195897
H   -0.80059621  -0.87359961  -0.92620016
N    0.66076208   0.59558123  -0.78916524
H    0.82579664   1.33431094  -0.03142960
H    0.33027151   1.05221683  -1.59384493
O   -0.38425790  -0.38862838   0.99566771
6
69
C   -0.32378862  -0.29052535  -0.20825602
H   -0.61475905  -0.98661386  -0.95232558
N    0.67503904   0.60940029  -0.81346951
H    1.01178085   1.41708644  -0.06996631
H    0.30475047   1.01091511  -1.51143915
O   -0.39223471  -0.40636323   1.02806813
6
70
C   -0.25439795  -0.27054128  -0.17139691
H   -0.87753700  -1.01351448  -0.80861635
N    0.64376532   0.61430358  -0.80288357
H    1.14104548   1.49775501  -0.29612185
H    0.49034674   1.08794282  -1.78803539
O   -0.42025513  -0.43389641   1.01378058
6
71
C   -0.29120865  -0.24045167  -0.20779788
H   -0.75093271  -1.13391240  -0.85342079
N    0.68926247   0.57766176  -0.77855771
H    0.77041829   1.31787128  -0.29885862
H    0.15650365   1.21302743  -1.57972910
O   -0.39601632  -0.41333295   1.00962320
6
72
C   -0.30547509  -0.33915094  -0.15982084
H   -0.79542781  -1.21867742  -0.86646117
N    0.71294295   0.66612949  -0.83940306
H    1.37172440   1.39909131  -0.33619429
H    0.08934823   1.22098301  -1.52230335
O   -0.43691944  -0.41703003   1.02648603
6
73
C   -0.25002257  -0.30530835  -0.13918255
H   -0.76887707  -1.04934155  -0.74789525
N    0.67559427   0.63365781  -0.82970427
H    1.29506275   1.35146950  -0.29645017
H    0.09163173   1.17679877  -1.52371535
O   -0.44281663  -0.41886219   0.99262622
6
74
C   -0.25483499  -0.27496349  -0.17250294
H   -0.64422803  -0.84496813  -1.12250158
N    0.57255643   0.58024646  -0.75841623
H    1.10729475   1.21212356  -0.04631273
H    0.63870316   1.07928101  -1.97917384
O   -0.37949473  -0.39287225   0.99180271
6
75
C   -0.26544214  -0.27441977  -0.15355775
H   -0.54599042  -1.04516536  -0.85307881
N    0.62952580   0.63463438  -0.82412188
H    1.32196656   1.11979862  -0.18958817
H    0.40150190   1.11270551  -1.75456138
O   -0.42617501  -0.42453813   1.01300227
6
76
C   -0.22009423  -0.33000633  -0.19625736
H   -0.64075229  -0.99777734  -0.89127569
N    0.64036701   0.61672199  -0.85391510
H    1.30598596   1.17854163  -0.16638240
H    0.21814551   1.49720958  -1.41739004
O   -0.45114431  -0.39802367   1.05081108
6
77
C   -0.34551675  -0.27376453  -0.23155026
H   -0.57065545  -1.11843841  -1.00581618
N    0.74319298   0.58114543  -0.79832640
H    0.75504743   1.36532491  -0.18117045
H   -0.16704227   1.29004618  -1.48887153
O   -0.39245462  -0.40020431   1.04119733
6
78
C   -0.19030372  -0.37899879  -0.16008122
H   -0.87868946  -0.85498070  -0.86046021
N    0.64197219   0.61125290  -0.86135266
H    1.11224333   1.13472034   0.19350715
H    0.13521748   1.49088943  -1.37757848
O   -0.44248152  -0.36230458   1.00302933
6
79
C   -0.23258819  -0.19947460  -0.12812565
H   -0.67625773  -0.64626621  -1.08386880
N    0.61314099   0.57147251  -0.77322104
H    0.85001751   1.39485028  -0.34755998
H    0.43766357   0.69454000  -1.78831514
O   -0.40083615  -0.44162075   0.97594103
6
80
C   -0.26444737  -0.22049167  -0.12380088
H   -0.76909088  -0.71591690  -0.83200294
N    0.65583300   0.59162595  -0.79956897
H    0.86275976   1.57665590  -0.14396829
H    0.37540597   0.69164889  -1.89441615
O   -0.40533152  -0.45035934   0.97372913
6
81
C   -0.31539585  -0.25212115  -0.18847115
H   -0.53031856  -0.82934923  -0.84111831
N    0.76710667   0.63943998  -0.93797106
H    0.83596459   1.65919044  -0.30358287
H    0.26877556   1.21784649  -1.68503241
O   -0.47112824  -0.49963433   1.14083615
6
82
C   -0.21966331  -0.32791223  -0.15202462
H   -0.71544829  -0.60195655  -0.86027069
N    0.64508577   0.62892931  -0.85120964
H    1.24870764   1.42727487  -0.04384837
H    0.25187472   1.06046257  -1.79428101
O   -0.44944144  -0.42340338   1.02931462
6
83
C   -0.21204834  -0.29724909  -0.11776185
H   -0.77634079  -0.51183723  -1.07612137
N    0.69001259   0.63424163  -0.89796107
H    0.89955919   1.40997519  -0.19007086
H    0.15532376   0.85377629  -1.37439691
O   -0.46256859  -0.44262822   1.04085161
6
84
C   -0.27672080  -0.32221300  -0.16867251
H   -0.96400662  -0.99682073  -0.97718644
N    0.63105045   0.57750736  -0.75090952
H    0.83956397   1.33461937  -0.08554722
H    0.49296456   1.30235421  -1.75068532
O   -0.36807832  -0.36720062   0.96122427
6
85
C   -0.29321405  -0.28935432  -0.28060386
H   -0.44396140  -1.05594103  -0.75646853
N    0.63596269   0.57910487  -0.82854831
H    1.11855244   1.34997187  -0.00720803
H    0.44576835   1.44796827  -1.44695322
O   -0.40730758  -0.39960443   1.07522233
6
86
C   -0.28692107  -0.25083635  -0.10675717
H   -0.88737374  -0.72077532  -0.99253480
N    0.75529659   0.62481361  -0.87302465
H    0.69981340   1.72312853  -0.15092352
H    0.06946791   0.78607623  -1.80055522
O   -0.43855534  -0.47151419   1.02983990
6
87
C   -0.27988312  -0.26250966  -0.20537460
H   -0.58083476  -1.07162919  -0.90824228
N    0.62552457   0.59957996  -0.81802403
H    1.17942648   1.33339417  -0.05166336
H    0.52917852   1.21211142  -1.77896247
O   -0.40868393  -0.42082991   1.04285640
6
88
C   -0.23860661  -0.30034405  -0.16609066
H   -0.96429819  -0.95156500  -0.97063543
N    0.73148424   0.63176158  -0.89797149
H    0.85527947   1.44441443  -0.05102571
H    0.06502906   1.20582825  -1.47787254
O   -0.45861278  -0.43475984   1.06821159
6
89
C   -0.20950366  -0.32646955  -0.18026278
H   -0.72761509  -0.72229987  -0.62176420
N    0.58183550   0.60207810  -0.77643862
H    1.28144453   1.27058416  -0.28267526
H    0.56404245   1.32041189  -1.86731527
O   -0.42266003  -0.39988479   0.98969403
6
90
C   -0.36255157  -0.21215779  -0.18503955
H   -0.88523334  -0.90394974  -0.69371813
N    0.74136991   0.60729916  -0.81280605
H    0.49455178   1.85674529  -0.38621826
H    0.61299444   0.84501938  -1.97480399
O   -0.39105426  -0.48577386   1.04283278
6
91
C   -0.23825516  -0.20823721  -0.20683588
H   -0.53848390  -0.89281034  -0.98474606
N    0.62420859   0.55540364  -0.77892162
H    0.89049744   1.21174941  -0.23961153
H    0.22317120   1.04596488  -1.55170461
O   -0.40394477  -0.41600588   1.01203086
6
92
C   -0.26385090  -0.28514844  -0.09990344
H   -0.92587076  -0.89411834  -0.81865528
N    0.70386251   0.67313739  -0.87452695
H    0.91921177   1.27298128  -0.22937329
H    0.49220076   1.04780887  -2.03207438
O   -0.44890384  -0.46527678   1.03463958
6
93
C   -0.27865743  -0.27137565  -0.16636108
H   -0.82617508  -0.60929510  -0.95581358
N    0.74622762   0.62490482  -0.84486424
H    0.53036089   1.38478552  -0.24762165
H    0.07716636   0.92307790  -1.81296424
O   -0.43048262  -0.45050248   1.05446541
6
94
C   -0.33014508  -0.21899246  -0.14970078
H   -0.69895603  -1.07959104  -1.22374826
N    0.65128676   0.60114394  -0.80690924
H    0.93470236   1.54925009  -0.15127838
H    0.71500701   0.91695581  -2.00629693
O   -0.38239719  -0.44941105   1.03181455
6
95
C   -0.21966916  -0.31462478  -0.19300167
H   -0.76589748  -0.95951232  -0.99356674
N    0.64094053   0.58839241  -0.83971132
H    0.98082603   1.16899735   0.05505201
H    0.25008065   1.44374004  -1.46970285
O   -0.42560022  -0.38320802   1.03169722
6
96
C   -0.28406401  -0.32929731  -0.18605610
H   -0.58277268  -1.11609187  -1.22298800
N    0.65819752   0.58128482  -0.81233510
H    1.03428349   1.16489044  -0.18256441
H    0.19314550   1.65008302  -1.42951536
O   -0.40369461  -0.36887672   1.02942754
6
97
C   -0.23158551  -0.24762251  -0.16389756
H   -0.81816430  -1.01712062  -0.67041938
N    0.67141578   0.61421519  -0.84814163
H    1.05190379   1.38696920  -0.08949927
H    0.22794481   1.05916338  -1.63275849
O   -0.44314988  -0.44196089   1.01624150
6
98
C   -0.31057633  -0.27034917  -0.18688073
H   -0.90350671  -0.75512394  -0.88931111
N    0.73957307   0.62229719  -0.86106548
H    0.32654543   1.36106035   0.02137925
H    0.41688898   0.95978585  -1.75708597
O   -0.40437793  -0.44060329   1.05938036
6
99
C   -0.30016354  -0.45917636  -0.14262694
H   -0.96423119  -0.66790291  -0.96425765
N    0.69891357   0.61283747  -0.77296968
H    1.04417504   1.49693414   0.16944500
H   -0.17949540   1.22179534  -1.55363172
O   -0.38039513  -0.32123911   0.93167072
6
100
C   -0.31634352  -0.18270501  -0.23089983
H   -0.62857004  -1.00723295  -1.00355524
N    0.68236152   0.57354129  -0.79943985
H    0.85974748   1.73548439  -0.33569508
H    0.49136975   1.07020377  -2.10972911
O   -0.40556981  -0.47837966   1.09043444
